[General]
network = Repair
sim-time-limit = 8766s
Repair.masters.number_of_masters = ${i=25..35}